Version 4
SHEET 1 1572 1944
WIRE -544 816 -560 816
WIRE -272 816 -288 816
WIRE -832 848 -864 848
WIRE -720 848 -752 848
WIRE -688 848 -720 848
WIRE -560 848 -560 816
WIRE -560 848 -608 848
WIRE -416 864 -432 864
WIRE -864 896 -864 848
WIRE -720 912 -720 848
WIRE -544 944 -592 944
WIRE -432 944 -432 864
WIRE -432 944 -464 944
WIRE -400 944 -432 944
WIRE -288 944 -288 816
WIRE -288 944 -320 944
WIRE -592 992 -592 944
WIRE -720 1040 -720 992
WIRE -656 1040 -720 1040
WIRE -720 1056 -720 1040
WIRE -1088 1104 -1136 1104
WIRE -976 1104 -1008 1104
WIRE -848 1104 -976 1104
WIRE -784 1104 -848 1104
WIRE -592 1120 -592 1088
WIRE -976 1136 -976 1104
WIRE -1136 1152 -1136 1104
WIRE -848 1152 -848 1104
WIRE -400 1152 -416 1152
WIRE -320 1152 -336 1152
WIRE -720 1168 -720 1152
WIRE -416 1168 -416 1152
WIRE -336 1168 -336 1152
WIRE -1136 1264 -1136 1232
WIRE -976 1264 -976 1216
WIRE -848 1264 -848 1216
WIRE -720 1264 -720 1248
WIRE -704 1264 -720 1264
WIRE -416 1264 -416 1248
WIRE -336 1264 -336 1248
FLAG -416 1264 0
FLAG -416 1152 VCC
FLAG -336 1264 0
FLAG -336 1152 VEE
FLAG -1136 1264 0
FLAG -976 1264 0
FLAG -592 1120 0
FLAG -1136 1104 In
FLAG -720 1264 VEE
FLAG -848 1264 0
FLAG -288 816 VCC
FLAG -864 896 0
FLAG -560 816 VCC
FLAG -416 864 OUT
IOPIN -416 864 Out
SYMBOL voltage -416 1152 R0
WINDOW 123 0 0 Left 2
WINDOW 39 0 0 Left 2
SYMATTR InstName V2
SYMATTR Value 12V
SYMBOL voltage -336 1152 R0
WINDOW 123 0 0 Left 2
WINDOW 39 0 0 Left 2
SYMATTR InstName V3
SYMATTR Value -12V
SYMBOL voltage -1136 1136 R0
WINDOW 3 -34 -115 Left 2
WINDOW 123 0 0 Left 2
WINDOW 39 0 0 Left 2
SYMATTR Value PULSE(0 3.3 0 1m 1n 1n 1m)
SYMATTR InstName V4
SYMBOL pnp -784 1152 M180
SYMATTR InstName Q11
SYMATTR Value QA1015
SYMBOL res -992 1120 R0
SYMATTR InstName R17
SYMATTR Value 2.2k
SYMBOL res -736 896 R0
SYMATTR InstName R18
SYMATTR Value 68k
SYMBOL npn -656 992 R0
SYMATTR InstName Q12
SYMATTR Value QC1815
SYMBOL res -736 1152 R0
SYMATTR InstName R20
SYMATTR Value 330
SYMBOL res -992 1088 R90
WINDOW 0 0 56 VBottom 2
WINDOW 3 32 56 VTop 2
SYMATTR InstName R21
SYMATTR Value 330k
SYMBOL cap -864 1152 R0
SYMATTR InstName C8
SYMATTR Value 100p
SYMBOL res -448 928 R90
WINDOW 0 0 56 VBottom 2
WINDOW 3 32 56 VTop 2
SYMATTR InstName R1
SYMATTR Value 680
SYMBOL res -304 928 R90
WINDOW 0 0 56 VBottom 2
WINDOW 3 32 56 VTop 2
SYMATTR InstName R2
SYMATTR Value {RL}
SYMBOL res -592 832 R90
WINDOW 0 0 56 VBottom 2
WINDOW 3 32 56 VTop 2
SYMATTR InstName R3
SYMATTR Value {10k-Rref}
SYMBOL res -736 832 R90
WINDOW 0 0 56 VBottom 2
WINDOW 3 32 56 VTop 2
SYMATTR InstName R4
SYMATTR Value {Rref}
TEXT -200 936 Left 2 !;ac oct 100 10 100k
TEXT -200 960 Left 2 !;.tran 0 10m 7m
TEXT -200 808 Left 2 !.step param Rref list 1k 2k 3k 5k
TEXT -200 840 Left 2 !.param RL=10k
TEXT -200 992 Left 2 !.dc V4 -12 12 0.1
